boat.xyz
 OpenBabel12211815283D

 18 18  0  0  0  0  0  0  0  0999 V2000
   -2.1439    1.6961   -2.6031 C   0  0  0  0  0  0  0  0  0  0  0  0
   -3.1926    0.7145   -4.9287 H   0  0  0  0  0  0  0  0  0  0  0  0
   -2.1131    2.2011   -3.5926 H   0  0  0  0  0  0  0  0  0  0  0  0
   -3.4487   -0.1005   -4.2178 C   0  0  0  0  0  0  0  0  0  0  0  0
   -3.6087    1.4770   -2.1906 C   0  0  0  0  0  0  0  0  0  0  0  0
   -1.4180    0.3442   -2.7006 C   0  0  0  0  0  0  0  0  0  0  0  0
   -4.3461    0.4618   -3.1032 C   0  0  0  0  0  0  0  0  0  0  0  0
   -2.1554   -0.6711   -3.6130 C   0  0  0  0  0  0  0  0  0  0  0  0
   -1.6306    2.3612   -1.8759 H   0  0  0  0  0  0  0  0  0  0  0  0
   -3.9876   -0.8839   -4.7926 H   0  0  0  0  0  0  0  0  0  0  0  0
   -3.6265    1.0881   -1.1483 H   0  0  0  0  0  0  0  0  0  0  0  0
   -4.1438    2.4509   -2.1857 H   0  0  0  0  0  0  0  0  0  0  0  0
   -1.3458   -0.0911   -1.6793 H   0  0  0  0  0  0  0  0  0  0  0  0
   -0.3795    0.5044   -3.0623 H   0  0  0  0  0  0  0  0  0  0  0  0
   -4.6970   -0.3851   -2.4728 H   0  0  0  0  0  0  0  0  0  0  0  0
   -5.2478    0.9310   -3.5523 H   0  0  0  0  0  0  0  0  0  0  0  0
   -2.4162   -1.5646   -3.0035 H   0  0  0  0  0  0  0  0  0  0  0  0
   -1.4836   -1.0158   -4.4284 H   0  0  0  0  0  0  0  0  0  0  0  0
  1  5  1  0  0  0  0
  1  9  1  0  0  0  0
  2  4  1  0  0  0  0
  3  1  1  0  0  0  0
  4  8  1  0  0  0  0
  4  7  1  0  0  0  0
  5 12  1  0  0  0  0
  5 11  1  0  0  0  0
  6  1  1  0  0  0  0
  6 13  1  0  0  0  0
  7 15  1  0  0  0  0
  7  5  1  0  0  0  0
  8 17  1  0  0  0  0
  8  6  1  0  0  0  0
 10  4  1  0  0  0  0
 14  6  1  0  0  0  0
 16  7  1  0  0  0  0
 18  8  1  0  0  0  0
M  END
$$$$
chair.xyz
 OpenBabel12211815283D

 18 18  0  0  0  0  0  0  0  0999 V2000
    2.7707   -1.5946    3.6762 C   0  0  0  0  0  0  0  0  0  0  0  0
    2.7240   -2.2347    5.0714 C   0  0  0  0  0  0  0  0  0  0  0  0
    2.2180   -3.6816    4.9782 C   0  0  0  0  0  0  0  0  0  0  0  0
    3.1188   -4.5028    4.0442 C   0  0  0  0  0  0  0  0  0  0  0  0
    3.1655   -3.8628    2.6490 C   0  0  0  0  0  0  0  0  0  0  0  0
    3.6715   -2.4159    2.7422 C   0  0  0  0  0  0  0  0  0  0  0  0
    3.1585   -0.5563    3.7532 H   0  0  0  0  0  0  0  0  0  0  0  0
    1.7421   -1.5514    3.2545 H   0  0  0  0  0  0  0  0  0  0  0  0
    3.7437   -2.2273    5.5161 H   0  0  0  0  0  0  0  0  0  0  0  0
    2.0528   -1.6449    5.7318 H   0  0  0  0  0  0  0  0  0  0  0  0
    2.2091   -4.1413    5.9897 H   0  0  0  0  0  0  0  0  0  0  0  0
    1.1771   -3.6849    4.5855 H   0  0  0  0  0  0  0  0  0  0  0  0
    4.1474   -4.5461    4.4659 H   0  0  0  0  0  0  0  0  0  0  0  0
    2.7310   -5.5412    3.9672 H   0  0  0  0  0  0  0  0  0  0  0  0
    3.8367   -4.4525    1.9886 H   0  0  0  0  0  0  0  0  0  0  0  0
    2.1458   -3.8702    2.2043 H   0  0  0  0  0  0  0  0  0  0  0  0
    4.7124   -2.4125    3.1349 H   0  0  0  0  0  0  0  0  0  0  0  0
    3.6804   -1.9562    1.7307 H   0  0  0  0  0  0  0  0  0  0  0  0
  1  7  1  0  0  0  0
  1  2  1  0  0  0  0
  2  9  1  0  0  0  0
  2 10  1  0  0  0  0
  3  2  1  0  0  0  0
  3 11  1  0  0  0  0
  4 13  1  0  0  0  0
  4  3  1  0  0  0  0
  5  6  1  0  0  0  0
  5  4  1  0  0  0  0
  6 17  1  0  0  0  0
  6  1  1  0  0  0  0
  8  1  1  0  0  0  0
 12  3  1  0  0  0  0
 14  4  1  0  0  0  0
 15  5  1  0  0  0  0
 16  5  1  0  0  0  0
 18  6  1  0  0  0  0
M  END
$$$$
